@<TRIPOS>MOLECULE
molecule
   18    17     1     0     0
SMALL
bcc


@<TRIPOS>ATOM
      1 C1           0.0000     0.0000     0.0000 c          1 CIT       0.894600
      2 O1           1.2070     0.0000     0.0000 o          1 CIT      -0.878300
      3 O2          -0.6710     0.0000     1.1620 o          1 CIT      -0.878300
      4 C2          -0.7530     0.0020    -1.3050 c3         1 CIT      -0.189400
      5 C3           0.2410     0.0040    -2.4670 c3         1 CIT       0.087800
      6 O7           1.0610    -1.1630    -2.3930 oh         1 CIT      -0.544800
      7 C4          -0.5230     0.0050    -3.7920 c3         1 CIT      -0.189400
      8 C5           0.4560     0.0040    -4.9370 c          1 CIT       0.894600
      9 O3           1.6430     0.0040    -4.7160 o          1 CIT      -0.878300
     10 O4           0.0090     0.0070    -6.2020 o          1 CIT      -0.878300
     11 C6           1.1080     1.2320    -2.3860 c          1 CIT       0.967600
     12 O5           2.3040     1.1210    -2.2760 o          1 CIT      -0.874800
     13 O6           0.5480     2.4520    -2.4370 o          1 CIT      -0.874800
     14 H21         -1.3760    -0.8820    -1.3630 hc         1 CIT       0.006700
     15 H22         -1.3750     0.8870    -1.3610 hc         1 CIT       0.006700
     16 HO7          0.5190    -1.9330    -2.4430 ho         1 CIT       0.317000
     17 H41         -1.1460     0.8890    -3.8490 hc         1 CIT       0.006700
     18 H42         -1.1470    -0.8800    -3.8500 hc         1 CIT       0.006700
@<TRIPOS>BOND
     1     1     2 1
     2     1     3 1
     3     1     4 1
     4     4     5 1
     5     4    14 1
     6     4    15 1
     7     5     6 1
     8     5     7 1
     9     5    11 1
    10     6    16 1
    11     7     8 1
    12     7    17 1
    13     7    18 1
    14     8     9 1
    15     8    10 1
    16    11    12 1
    17    11    13 1
@<TRIPOS>SUBSTRUCTURE
     1 CIT         1 TEMP              0 ****  ****    0 ROOT
