@<TRIPOS>MOLECULE
CIT
   18    17     1     0     0
SMALL
bcc


@<TRIPOS>ATOM
      1 C1          -0.0800     0.1270     0.1120 c          1 CIT       0.914600
      2 O1           1.0500     0.7030     0.2010 o          1 CIT      -0.907800
      3 O2          -0.5950    -0.4160     1.1490 o          1 CIT      -0.907800
      4 C2          -0.7690    -0.0830    -1.2340 c3         1 CIT      -0.167900
      5 C3          -1.2990     1.0960    -2.0730 c3         1 CIT       0.097800
      6 O7          -2.3010     1.7500    -1.3030 oh         1 CIT      -0.627800
      7 C4          -0.1710     2.0570    -2.4570 c3         1 CIT      -0.167900
      8 C5          -0.5020     3.4600    -2.9580 c          1 CIT       0.914600
      9 O3           0.3620     4.0440    -3.6990 o          1 CIT      -0.907800
     10 O4          -1.5570     4.0830    -2.6180 o          1 CIT      -0.907800
     11 C6          -1.9550     0.4650    -3.3420 c          1 CIT       0.892600
     12 O5          -1.2830    -0.3280    -4.0760 o          1 CIT      -0.895300
     13 O6          -3.1730     0.7160    -3.6050 o          1 CIT      -0.895300
     14 H21         -0.0350    -0.6190    -1.8940 hc         1 CIT       0.035950
     15 H22         -1.6420    -0.7640    -1.0540 hc         1 CIT       0.035950
     16 HO7         -2.6550     2.4380    -1.8860 ho         1 CIT       0.422000
     17 H41          0.4770     2.1930    -1.5480 hc         1 CIT       0.035950
     18 H42          0.4420     1.5480    -3.2460 hc         1 CIT       0.035950
@<TRIPOS>BOND
     1     1     2 1
     2     1     3 1
     3     1     4 1
     4     4     5 1
     5     4    14 1
     6     4    15 1
     7     5     6 1
     8     5     7 1
     9     5    11 1
    10     6    16 1
    11     7     8 1
    12     7    17 1
    13     7    18 1
    14     8     9 1
    15     8    10 1
    16    11    12 1
    17    11    13 1
@<TRIPOS>SUBSTRUCTURE
     1 CIT         1 TEMP              0 ****  ****    0 ROOT
