@<TRIPOS>MOLECULE
SO4
    5     4     1     0     0
SMALL
bcc


@<TRIPOS>ATOM
      1 S           16.5190    34.9820     5.4930 s6         1 SO4       1.542800
      2 O1          17.7940    34.8670     4.7840 o          1 SO4      -0.885200
      3 O2          16.6820    35.8620     6.6510 o          1 SO4      -0.885200
      4 O3          15.5100    35.5430     4.5930 o          1 SO4      -0.885200
      5 O4          16.0890    33.6580     5.9430 o          1 SO4      -0.885200
@<TRIPOS>BOND
     1     1     2 1
     2     1     3 1
     3     1     4 1
     4     1     5 1
@<TRIPOS>SUBSTRUCTURE
     1 SO4         1 TEMP              0 ****  ****    0 ROOT
