@<TRIPOS>MOLECULE
molecule
    5     4     1     0     0
SMALL
bcc


@<TRIPOS>ATOM
      1 S            0.0000     0.0000     0.0000 s6         1 SO4       1.515800
      2 O1           0.0000    -1.2010    -0.8500 o          1 SO4      -0.879200
      3 O2           0.0000     1.2010    -0.8500 o          1 SO4      -0.879200
      4 O3          -1.2010     0.0000     0.8500 o          1 SO4      -0.879200
      5 O4           1.2010     0.0000     0.8500 o          1 SO4      -0.879200
@<TRIPOS>BOND
     1     1     2 1
     2     1     3 1
     3     1     4 1
     4     1     5 1
@<TRIPOS>SUBSTRUCTURE
     1 SO4         1 TEMP              0 ****  ****    0 ROOT
