@<TRIPOS>MOLECULE
URE
   10     9     1     0     0
SMALL
bcc


@<TRIPOS>ATOM
      1 C            0.0770    -0.0170    -0.0140 c          1 URE       0.490100
      2 O            1.2890    -0.0560     0.0830 o          1 URE      -0.217100
      3 N1          -0.7820     0.0020     1.2050 nz         1 URE      -0.726400
      4 N2          -0.5760     0.0150    -1.3550 nz         1 URE      -0.726400
      5 HN11        -1.3530     0.8650     1.2660 hn         1 URE       0.530133
      6 HN12        -0.1480    -0.0240     2.0400 hn         1 URE       0.530133
      7 HN21         0.1830    -0.0050    -2.0780 hn         1 URE       0.530133
      8 HN22        -1.1840    -0.8110    -1.5100 hn         1 URE       0.530133
      9 H13         -1.4050    -0.8260     1.2540 hn         1 URE       0.530133
     10 H23         -1.1290     0.8800    -1.4980 hn         1 URE       0.530133
@<TRIPOS>BOND
     1     1     2 2
     2     1     3 1
     3     1     4 1
     4     3     5 1
     5     3     6 1
     6     3     9 1
     7     4     7 1
     8     4     8 1
     9     4    10 1
@<TRIPOS>SUBSTRUCTURE
     1 URE         1 TEMP              0 ****  ****    0 ROOT
