@<TRIPOS>MOLECULE
GOL
   14    13     1     0     0
SMALL
bcc


@<TRIPOS>ATOM
      1 C1           0.1180    -0.5000     0.0260 c3         1 GOL       0.115900
      2 O1           1.4010    -0.0060    -0.2870 oh         1 GOL      -0.603800
      3 C2          -0.3180    -0.0540     1.4250 c3         1 GOL       0.100100
      4 O2          -0.4040     1.3620     1.3830 oh         1 GOL      -0.612800
      5 C3          -1.6700    -0.6720     1.7870 c3         1 GOL       0.115900
      6 O3          -1.9980    -0.1750     3.0750 oh         1 GOL      -0.603800
      7 H11         -0.6290    -0.1500    -0.7350 h1         1 GOL       0.043450
      8 H12          0.2140    -1.6170    -0.0100 h1         1 GOL       0.043450
      9 HO1          1.3700     0.9540    -0.1760 ho         1 GOL       0.414000
     10 H2           0.4540    -0.3550     2.1880 h1         1 GOL       0.061700
     11 HO2         -0.7470     1.6450     2.2410 ho         1 GOL       0.425000
     12 H31         -2.4510    -0.3650     1.0430 h1         1 GOL       0.043450
     13 H32         -1.5910    -1.7900     1.8120 h1         1 GOL       0.043450
     14 HO3         -2.8810    -0.5010     3.2830 ho         1 GOL       0.414000
@<TRIPOS>BOND
     1     1     2 1
     2     1     3 1
     3     1     7 1
     4     1     8 1
     5     2     9 1
     6     3     4 1
     7     3     5 1
     8     3    10 1
     9     4    11 1
    10     5     6 1
    11     5    12 1
    12     5    13 1
    13     6    14 1
@<TRIPOS>SUBSTRUCTURE
     1 GOL         1 TEMP              0 ****  ****    0 ROOT
