@<TRIPOS>MOLECULE
molecule
   14    13     1     0     0
SMALL
bcc


@<TRIPOS>ATOM
      1 C1           0.0000     0.0000     0.0000 c3         1 GOL       0.129400
      2 O1           1.4290     0.0000     0.0000 oh         1 GOL      -0.604800
      3 C2          -0.5100     0.0000     1.4420 c3         1 GOL       0.154100
      4 O2          -0.1320     1.2210     2.0810 oh         1 GOL      -0.590800
      5 C3          -2.0340    -0.1260     1.4440 c3         1 GOL       0.129400
      6 O3          -2.5010    -0.2430     2.7900 oh         1 GOL      -0.604800
      7 H11         -0.3610    -0.8850    -0.5110 h1         1 GOL       0.028450
      8 H12         -0.3610     0.8850    -0.5110 h1         1 GOL       0.028450
      9 HO1          1.7440    -0.0870    -0.8850 ho         1 GOL       0.404000
     10 H2          -0.0780    -0.8370     1.9780 h1         1 GOL       0.053700
     11 HO2          0.4110     1.0300     2.8280 ho         1 GOL       0.412000
     12 H31         -2.4700     0.7540     0.9860 h1         1 GOL       0.028450
     13 H32         -2.3250    -1.0060     0.8830 h1         1 GOL       0.028450
     14 HO3         -3.4290    -0.4070     2.7880 ho         1 GOL       0.404000
@<TRIPOS>BOND
     1     1     2 1
     2     1     3 1
     3     1     7 1
     4     1     8 1
     5     2     9 1
     6     3     4 1
     7     3     5 1
     8     3    10 1
     9     4    11 1
    10     5     6 1
    11     5    12 1
    12     5    13 1
    13     6    14 1
@<TRIPOS>SUBSTRUCTURE
     1 GOL         1 TEMP              0 ****  ****    0 ROOT
